         147
Pt Pt -798.825989   2.2474
 Pt          3.34359         6.24572        -6.22772   1
 Pt          2.57615         4.55348        -4.36961   1
 Pt          1.77127         2.77866        -2.42084   1
 Pt          0.96034         0.99053        -0.45744   1
 Pt          0.14942        -0.79760         1.50595   1
 Pt         -0.65547        -2.57242         3.45473   1
 Pt         -1.42291        -4.26466         5.31284   1
 Pt          0.73413         5.77269        -5.89159   1
 Pt         -0.07964         4.04260        -3.99419   1
 Pt         -0.87031         2.24088        -2.01394   1
 Pt         -1.67120         0.47480        -0.07489   1
 Pt         -2.51099        -1.31883         1.89245   1
 Pt         -3.27046        -3.05785         3.80413   1
 Pt          2.38624         3.85763        -6.95334   1
 Pt          1.59262         2.10422        -5.06886   1
 Pt          0.78378         0.32362        -3.07687   1
 Pt         -0.01703        -1.44243        -1.13776   1
 Pt         -0.83856        -3.25714         0.81791   1
 Pt         -1.61815        -4.97283         2.74254   1
 Pt          4.83492         4.08197        -5.73766   1
 Pt          4.07112         2.33131        -3.83836   1
 Pt          3.23528         0.54829        -1.85973   1
 Pt          2.43444        -1.21767         0.07944   1
 Pt          1.63986        -3.02986         2.04854   1
 Pt          0.83044        -4.74827         3.95837   1
 Pt          4.69618         6.13568        -3.92458   1
 Pt          3.93066         4.41004        -2.00320   1
 Pt          3.09630         2.60440        -0.04457   1
 Pt          2.29535         0.83845         1.89458   1
 Pt          1.49918        -0.95110         3.88364   1
 Pt          0.69143        -2.69452         5.77138   1
 Pt          2.16175         7.18060        -4.01971   1
 Pt          1.36535         5.46768        -2.09951   1
 Pt          0.55890         3.65048        -0.13987   1
 Pt         -0.24208         1.88446         1.79920   1
 Pt         -1.06618         0.10638         3.78717   1
 Pt         -1.84306        -1.64979         5.67605   1
 Pt         -1.92867         5.24130        -5.49347   1
 Pt         -2.70951         3.47570        -3.55338   1
 Pt         -3.52980         1.72975        -1.63873   1
 Pt         -4.29694        -0.02494         0.28989   1
 Pt         -5.11471        -1.78447         2.22027   1
 Pt         -0.27892         3.33999        -6.62348   1
 Pt         -1.09093         1.55828        -4.67348   1
 Pt         -1.91876        -0.22201        -2.75088   1
 Pt         -2.69571        -1.98087        -0.78774   1
 Pt         -3.49773        -3.75837         1.17022   1
 Pt          1.39410         1.38969        -7.62887   1
 Pt          0.59963        -0.36003        -5.67995   1
 Pt         -0.20081        -2.12875        -3.77785   1
 Pt         -0.98751        -3.86054        -1.83645   1
 Pt         -1.79154        -5.63591         0.08517   1
 Pt          3.88600         1.62284        -6.46713   1
 Pt          3.08131        -0.16184        -4.51682   1
 Pt          2.29072        -1.95736        -2.59271   1
 Pt          1.47662        -3.70078        -0.63086   1
 Pt          0.66731        -5.47524         1.32686   1
 Pt          6.31894         1.84091        -5.18387   1
 Pt          5.50416         0.08939        -3.24498   1
 Pt          4.73286        -1.67651        -1.32828   1
 Pt          3.91689        -3.41084         0.59873   1
 Pt          3.13312        -5.18429         2.53047   1
 Pt          6.23206         3.93653        -3.39101   1
 Pt          5.43144         2.15594        -1.43529   1
 Pt          4.66167         0.38117         0.51632   1
 Pt          3.82649        -1.38282         2.45073   1
 Pt          3.01302        -3.16131         4.40307   1
 Pt          6.03989         5.97138        -1.53737   1
 Pt          5.22619         4.20286         0.38649   1
 Pt          4.45304         2.46148         2.32477   1
 Pt          3.63854         0.70269         4.23011   1
 Pt          2.85355        -1.05374         6.17684   1
 Pt          3.51707         7.08362        -1.64620   1
 Pt          2.71164         5.30853         0.31255   1
 Pt          1.91751         3.56182         2.27965   1
 Pt          1.10646         1.76966         4.19838   1
 Pt          0.29771        -0.01435         6.14762   1
 Pt          0.94259         8.07294        -1.72870   1
 Pt          0.14985         6.29571         0.19589   1
 Pt         -0.65357         4.56667         2.13289   1
 Pt         -1.43788         2.79529         4.03923   1
 Pt         -2.24388         1.04747         5.98513   1
 Pt         -0.50694         6.71494        -3.64398   1
 Pt         -1.31941         4.93916        -1.68877   1
 Pt         -2.14942         3.18903         0.26041   1
 Pt         -2.92448         1.40005         2.19689   1
 Pt         -3.72615        -0.38336         4.14961   1
 Pt         -4.47126         4.64216        -5.00940   1
 Pt         -5.29796         2.95304        -3.15965   1
 Pt         -6.08462         1.21816        -1.25513   1
 Pt         -6.79827        -0.48956         0.62436   1
 Pt         -2.89339         2.81850        -6.15793   1
 Pt         -3.74757         1.04996        -4.28781   1
 Pt         -4.54873        -0.71701        -2.34796   1
 Pt         -5.27777        -2.44004        -0.38468   1
 Pt         -1.21803         0.87649        -7.23460   1
 Pt         -2.06762        -0.89732        -5.36734   1
 Pt         -2.86869        -2.66424        -3.42743   1
 Pt         -3.60223        -4.38198        -1.46119   1
 Pt          0.41805        -1.02530        -8.15155   1
 Pt         -0.36656        -2.76293        -6.32860   1
 Pt         -1.15299        -4.49771        -4.42389   1
 Pt         -1.90839        -6.15679        -2.51734   1
 Pt          2.85538        -0.80290        -7.08170   1
 Pt          2.08835        -2.61064        -5.21127   1
 Pt          1.28731        -4.37746        -3.27124   1
 Pt          0.47127        -6.06110        -1.30802   1
 Pt          5.33850        -0.57541        -5.84890   1
 Pt          4.57817        -2.38248        -3.97508   1
 Pt          3.77710        -4.14921        -2.03498   1
 Pt          2.95432        -5.83341        -0.07507   1
 Pt          7.66474        -0.36135        -4.55384   1
 Pt          6.94215        -2.09312        -2.69993   1
 Pt          6.15561        -3.82765        -0.79504   1
 Pt          5.33804        -5.49226         1.08079   1
 Pt          7.63299         1.68746        -2.84040   1
 Pt          6.91906        -0.07370        -0.90561   1
 Pt          6.11785        -1.84034         1.03452   1
 Pt          5.24849        -3.57033         2.93351   1
 Pt          7.49227         3.77005        -1.00178   1
 Pt          6.77789         2.01455         0.93798   1
 Pt          5.97657         0.24792         2.87808   1
 Pt          5.10753        -1.48770         4.77206   1
 Pt          7.25412         5.71645         0.81183   1
 Pt          6.52779         4.03681         2.71167   1
 Pt          5.74094         2.30234         4.61648   1
 Pt          4.92668         0.58566         6.44627   1
 Pt          4.83695         6.84799         0.70465   1
 Pt          4.06869         5.15481         2.67891   1
 Pt          3.26725         3.38814         4.61891   1
 Pt          2.45192         1.59011         6.47826   1
 Pt          2.26685         7.90759         0.60820   1
 Pt          1.49159         6.21723         2.58215   1
 Pt          0.69013         4.45048         4.52206   1
 Pt         -0.11825         2.64954         6.38162   1
 Pt         -0.24635         8.80880         0.53029   1
 Pt         -1.03701         7.15551         2.42755   1
 Pt         -1.82394         5.42082         4.33213   1
 Pt         -2.57397         3.67750         6.16418   1
 Pt         -1.66871         7.54701        -1.34570   1
 Pt         -2.52365         5.84927         0.58859   1
 Pt         -3.32506         4.08239         2.52842   1
 Pt         -4.05367         2.28867         4.42751   1
 Pt         -3.11642         6.11926        -3.24391   1
 Pt         -3.97523         4.41760        -1.31476   1
 Pt         -4.77655         2.65066         0.62505   1
 Pt         -5.50117         0.86078         2.52926   1
